Version 4
SHEET 1 2844 692
WIRE 528 -816 352 -816
WIRE 1408 -784 1360 -784
WIRE 1792 -784 1664 -784
WIRE 1360 -752 1360 -784
WIRE 352 -720 352 -816
WIRE 400 -720 352 -720
WIRE 1408 -720 1216 -720
WIRE 1840 -720 1664 -720
WIRE 528 -704 528 -816
WIRE 528 -704 464 -704
WIRE 688 -704 528 -704
WIRE 272 -688 192 -688
WIRE 400 -688 272 -688
WIRE 688 -688 688 -704
WIRE 992 -688 768 -688
WIRE 1232 -688 992 -688
WIRE 1232 -656 1232 -688
WIRE 1408 -656 1232 -656
WIRE 1792 -656 1664 -656
WIRE 272 -608 272 -688
WIRE 992 -592 992 -688
WIRE 1792 -496 1792 -656
WIRE 1792 -496 1152 -496
WIRE 2304 -384 1408 -384
WIRE 512 -256 352 -256
WIRE -80 -224 -128 -224
WIRE 0 -224 -48 -224
WIRE 128 -224 80 -224
WIRE 1216 -176 1216 -720
WIRE 352 -160 352 -256
WIRE 400 -160 352 -160
WIRE -128 -144 -128 -224
WIRE -48 -144 -48 -224
WIRE 48 -144 -48 -144
WIRE 512 -144 512 -256
WIRE 512 -144 464 -144
WIRE 688 -144 512 -144
WIRE 960 -144 768 -144
WIRE 1152 -144 1152 -496
WIRE 1152 -144 960 -144
WIRE 128 -128 128 -224
WIRE 288 -128 176 -128
WIRE 400 -128 288 -128
WIRE 48 -112 0 -112
WIRE 0 -96 0 -112
WIRE 1216 -64 1216 -96
WIRE 1216 -64 1104 -64
WIRE 1216 -16 1216 -64
WIRE 288 48 288 -128
WIRE 1840 64 1840 -720
WIRE 1840 64 1216 64
WIRE 960 112 960 -144
WIRE 1712 208 1472 208
WIRE 1472 304 1472 208
WIRE 1520 304 1472 304
WIRE 1712 320 1712 208
WIRE 1712 320 1584 320
WIRE 1840 320 1712 320
WIRE 1104 336 1104 -64
WIRE 1520 336 1104 336
WIRE 1984 368 1952 368
WIRE 2208 368 2064 368
WIRE 1840 496 1840 400
WIRE 1952 496 1952 368
WIRE 1952 496 1840 496
WIRE 2000 496 1952 496
WIRE 2208 512 2208 368
WIRE 2208 512 2064 512
WIRE 2368 512 2208 512
WIRE 2000 528 1968 528
WIRE 1968 560 1968 528
FLAG 272 -528 0
FLAG 992 -528 0
FLAG 288 128 0
FLAG 960 176 0
FLAG 1968 560 0
FLAG 432 -736 V+
FLAG 432 -176 V+
FLAG 2032 480 V+
FLAG 1552 288 V+
FLAG 1344 -448 V+
FLAG 640 -1248 V+
FLAG 432 -672 V-
FLAG 432 -112 V-
FLAG 1312 -320 V-
FLAG 2032 544 V-
FLAG 2816 480 V-
FLAG 1552 352 V-
FLAG 768 -1248 V-
FLAG 640 -1168 0
FLAG 768 -1168 0
FLAG 1376 -320 0
FLAG -80 -224 S
FLAG 128 -688 S
FLAG -96 -624 S
FLAG -96 -544 0
FLAG 0 -96 0
FLAG 80 -160 V+
FLAG 80 -96 V-
FLAG 2368 672 0
FLAG 1664 -592 V+
FLAG 1408 -592 V-
FLAG 1392 -592 V-
FLAG 1360 -752 0
SYMBOL res 784 -704 R90
WINDOW 0 0 56 VBottom 2
WINDOW 3 32 56 VTop 2
SYMATTR InstName R1
SYMATTR Value 60000
SYMBOL res 784 -160 R90
WINDOW 0 0 56 VBottom 2
WINDOW 3 32 56 VTop 2
SYMATTR InstName R2
SYMATTR Value 60000
SYMBOL res 288 -512 R180
WINDOW 0 36 76 Left 2
WINDOW 3 36 40 Left 2
SYMATTR InstName R3
SYMATTR Value 3Meg
SYMBOL res 304 144 R180
WINDOW 0 36 76 Left 2
WINDOW 3 36 40 Left 2
SYMATTR InstName R4
SYMATTR Value 3Meg
SYMBOL cap 192 -704 R90
WINDOW 0 0 32 VBottom 2
WINDOW 3 44 35 VTop 2
SYMATTR InstName C1
SYMATTR Value 1µ
SYMATTR SpiceLine V=4 Irms=5.18 Rser=0.0171188 Lser=0 mfg="KEMET" pn="C0603C105K7PAC" type="X5R"
SYMBOL cap 176 -144 R90
WINDOW 0 0 32 VBottom 2
WINDOW 3 32 32 VTop 2
SYMATTR InstName C2
SYMATTR Value 5µ
SYMBOL cap 1008 -528 R180
WINDOW 0 24 56 Left 2
WINDOW 3 24 8 Left 2
SYMATTR InstName C3
SYMATTR Value 0.1µ
SYMBOL cap 976 176 R180
WINDOW 0 24 56 Left 2
WINDOW 3 24 8 Left 2
SYMATTR InstName C4
SYMATTR Value 0.1µ
SYMBOL Opamps\\LTC1050 432 -768 R0
SYMATTR InstName U1
SYMBOL Opamps\\LTC1050 432 -208 R0
SYMATTR InstName U2
SYMBOL Opamps\\LT1168 1344 -384 R0
SYMATTR InstName U3
SYMBOL res 1200 -192 R0
SYMATTR InstName R5
SYMATTR Value 25
SYMBOL res 1200 -32 R0
SYMATTR InstName R6
SYMATTR Value 25
SYMBOL Opamps\\LTC1050 1552 256 R0
SYMATTR InstName U4
SYMBOL res 1824 304 R0
SYMATTR InstName R7
SYMATTR Value 10k
SYMBOL Opamps\\LTC1050 2032 448 R0
SYMATTR InstName U5
SYMBOL res 2080 352 R90
WINDOW 0 0 56 VBottom 2
WINDOW 3 32 56 VTop 2
SYMATTR InstName R8
SYMATTR Value 390k
SYMBOL res 2352 496 R0
SYMATTR InstName R9
SYMATTR Value 390k
SYMBOL voltage 640 -1264 R0
SYMATTR InstName V1
SYMATTR Value 5V
SYMBOL voltage 768 -1264 R0
SYMATTR InstName V2
SYMATTR Value -5V
SYMBOL voltage -96 -640 R0
WINDOW 123 0 0 Left 2
WINDOW 39 0 0 Left 2
SYMATTR InstName V3
SYMATTR Value SINE(0 1 1)
SYMBOL Opamps\\LTC1050 80 -192 R0
SYMATTR InstName U6
SYMBOL res 96 -240 R90
WINDOW 0 0 56 VBottom 2
WINDOW 3 32 56 VTop 2
SYMATTR InstName R12
SYMATTR Value 100
SYMBOL res -32 -160 R90
WINDOW 0 0 56 VBottom 2
WINDOW 3 32 56 VTop 2
SYMATTR InstName R13
SYMATTR Value 100
SYMBOL ind 2352 576 R0
SYMATTR InstName L1
SYMATTR Value 3.9mH
SYMATTR SpiceLine Ipk=1.4 Rser=0.127 Rpar=16970 Cpar=1.698p mfg="Bourns, Inc." pn="SDE0403A-100M"
SYMBOL Opamps\\LT1101 1536 -688 R0
SYMATTR InstName U7
TEXT 544 296 Left 2 !.tran 0 5 0 0.1
